768
13.679808 13.679808 13.679808 
H 0.713796 1.038462 0.977129
O 0.973796 0.854462 0.977129
H 1.243796 1.038462 0.977129
H 2.668054 1.038462 0.977129
O 2.928054 0.854462 0.977129
H 3.198054 1.038462 0.977129
H 4.622312 1.038462 0.977129
O 4.882312 0.854462 0.977129
H 5.152312 1.038462 0.977129
H 6.576571 1.038462 0.977129
O 6.836571 0.854462 0.977129
H 7.106570 1.038462 0.977129
H 8.530828 1.038462 0.977129
O 8.790829 0.854462 0.977129
H 9.060828 1.038462 0.977129
H 10.485086 1.038462 0.977129
O 10.745087 0.854462 0.977129
H 11.015086 1.038462 0.977129
H 12.439345 1.038462 0.977129
O 12.699346 0.854462 0.977129
H 12.969345 1.038462 0.977129
H 0.713796 2.992721 0.977129
O 0.973796 2.808721 0.977129
H 1.243796 2.992721 0.977129
H 2.668054 2.992721 0.977129
O 2.928054 2.808721 0.977129
H 3.198054 2.992721 0.977129
H 4.622312 2.992721 0.977129
O 4.882312 2.808721 0.977129
H 5.152312 2.992721 0.977129
H 6.576571 2.992721 0.977129
O 6.836571 2.808721 0.977129
H 7.106570 2.992721 0.977129
H 8.530828 2.992721 0.977129
O 8.790829 2.808721 0.977129
H 9.060828 2.992721 0.977129
H 10.485086 2.992721 0.977129
O 10.745087 2.808721 0.977129
H 11.015086 2.992721 0.977129
H 12.439345 2.992721 0.977129
O 12.699346 2.808721 0.977129
H 12.969345 2.992721 0.977129
H 0.713796 4.946979 0.977129
O 0.973796 4.762979 0.977129
H 1.243796 4.946979 0.977129
H 2.668054 4.946979 0.977129
O 2.928054 4.762979 0.977129
H 3.198054 4.946979 0.977129
H 4.622312 4.946979 0.977129
O 4.882312 4.762979 0.977129
H 5.152312 4.946979 0.977129
H 6.576571 4.946979 0.977129
O 6.836571 4.762979 0.977129
H 7.106570 4.946979 0.977129
H 8.530828 4.946979 0.977129
O 8.790829 4.762979 0.977129
H 9.060828 4.946979 0.977129
H 10.485086 4.946979 0.977129
O 10.745087 4.762979 0.977129
H 11.015086 4.946979 0.977129
H 12.439345 4.946979 0.977129
O 12.699346 4.762979 0.977129
H 12.969345 4.946979 0.977129
H 0.713796 6.901237 0.977129
O 0.973796 6.717237 0.977129
H 1.243796 6.901237 0.977129
H 2.668054 6.901237 0.977129
O 2.928054 6.717237 0.977129
H 3.198054 6.901237 0.977129
H 4.622312 6.901237 0.977129
O 4.882312 6.717237 0.977129
H 5.152312 6.901237 0.977129
H 6.576571 6.901237 0.977129
O 6.836571 6.717237 0.977129
H 7.106570 6.901237 0.977129
H 8.530828 6.901237 0.977129
O 8.790829 6.717237 0.977129
H 9.060828 6.901237 0.977129
H 10.485086 6.901237 0.977129
O 10.745087 6.717237 0.977129
H 11.015086 6.901237 0.977129
H 12.439345 6.901237 0.977129
O 12.699346 6.717237 0.977129
H 12.969345 6.901237 0.977129
H 0.713796 8.855495 0.977129
O 0.973796 8.671495 0.977129
H 1.243796 8.855495 0.977129
H 2.668054 8.855495 0.977129
O 2.928054 8.671495 0.977129
H 3.198054 8.855495 0.977129
H 4.622312 8.855495 0.977129
O 4.882312 8.671495 0.977129
H 5.152312 8.855495 0.977129
H 6.576571 8.855495 0.977129
O 6.836571 8.671495 0.977129
H 7.106570 8.855495 0.977129
H 8.530828 8.855495 0.977129
O 8.790829 8.671495 0.977129
H 9.060828 8.855495 0.977129
H 10.485086 8.855495 0.977129
O 10.745087 8.671495 0.977129
H 11.015086 8.855495 0.977129
H 12.439345 8.855495 0.977129
O 12.699346 8.671495 0.977129
H 12.969345 8.855495 0.977129
H 0.713796 10.809753 0.977129
O 0.973796 10.625753 0.977129
H 1.243796 10.809753 0.977129
H 2.668054 10.809753 0.977129
O 2.928054 10.625753 0.977129
H 3.198054 10.809753 0.977129
H 4.622312 10.809753 0.977129
O 4.882312 10.625753 0.977129
H 5.152312 10.809753 0.977129
H 6.576571 10.809753 0.977129
O 6.836571 10.625753 0.977129
H 7.106570 10.809753 0.977129
H 8.530828 10.809753 0.977129
O 8.790829 10.625753 0.977129
H 9.060828 10.809753 0.977129
H 10.485086 10.809753 0.977129
O 10.745087 10.625753 0.977129
H 11.015086 10.809753 0.977129
H 12.439345 10.809753 0.977129
O 12.699346 10.625753 0.977129
H 12.969345 10.809753 0.977129
H 0.713796 12.764012 0.977129
O 0.973796 12.580012 0.977129
H 1.243796 12.764012 0.977129
H 2.668054 12.764012 0.977129
O 2.928054 12.580012 0.977129
H 3.198054 12.764012 0.977129
H 4.622312 12.764012 0.977129
O 4.882312 12.580012 0.977129
H 5.152312 12.764012 0.977129
H 6.576571 12.764012 0.977129
O 6.836571 12.580012 0.977129
H 7.106570 12.764012 0.977129
H 8.530828 12.764012 0.977129
O 8.790829 12.580012 0.977129
H 9.060828 12.764012 0.977129
H 10.485086 12.764012 0.977129
O 10.745087 12.580012 0.977129
H 11.015086 12.764012 0.977129
H 12.439345 12.764012 0.977129
O 12.699346 12.580012 0.977129
H 12.969345 12.764012 0.977129
H 0.713796 1.038462 2.931387
O 0.973796 0.854462 2.931387
H 1.243796 1.038462 2.931387
H 2.668054 1.038462 2.931387
O 2.928054 0.854462 2.931387
H 3.198054 1.038462 2.931387
H 4.622312 1.038462 2.931387
O 4.882312 0.854462 2.931387
H 5.152312 1.038462 2.931387
H 6.576571 1.038462 2.931387
O 6.836571 0.854462 2.931387
H 7.106570 1.038462 2.931387
H 8.530828 1.038462 2.931387
O 8.790829 0.854462 2.931387
H 9.060828 1.038462 2.931387
H 10.485086 1.038462 2.931387
O 10.745087 0.854462 2.931387
H 11.015086 1.038462 2.931387
H 12.439345 1.038462 2.931387
O 12.699346 0.854462 2.931387
H 12.969345 1.038462 2.931387
H 0.713796 2.992721 2.931387
O 0.973796 2.808721 2.931387
H 1.243796 2.992721 2.931387
H 2.668054 2.992721 2.931387
O 2.928054 2.808721 2.931387
H 3.198054 2.992721 2.931387
H 4.622312 2.992721 2.931387
O 4.882312 2.808721 2.931387
H 5.152312 2.992721 2.931387
H 6.576571 2.992721 2.931387
O 6.836571 2.808721 2.931387
H 7.106570 2.992721 2.931387
H 8.530828 2.992721 2.931387
O 8.790829 2.808721 2.931387
H 9.060828 2.992721 2.931387
H 10.485086 2.992721 2.931387
O 10.745087 2.808721 2.931387
H 11.015086 2.992721 2.931387
H 12.439345 2.992721 2.931387
O 12.699346 2.808721 2.931387
H 12.969345 2.992721 2.931387
H 0.713796 4.946979 2.931387
O 0.973796 4.762979 2.931387
H 1.243796 4.946979 2.931387
H 2.668054 4.946979 2.931387
O 2.928054 4.762979 2.931387
H 3.198054 4.946979 2.931387
H 4.622312 4.946979 2.931387
O 4.882312 4.762979 2.931387
H 5.152312 4.946979 2.931387
H 6.576571 4.946979 2.931387
O 6.836571 4.762979 2.931387
H 7.106570 4.946979 2.931387
H 8.530828 4.946979 2.931387
O 8.790829 4.762979 2.931387
H 9.060828 4.946979 2.931387
H 10.485086 4.946979 2.931387
O 10.745087 4.762979 2.931387
H 11.015086 4.946979 2.931387
H 12.439345 4.946979 2.931387
O 12.699346 4.762979 2.931387
H 12.969345 4.946979 2.931387
H 0.713796 6.901237 2.931387
O 0.973796 6.717237 2.931387
H 1.243796 6.901237 2.931387
H 2.668054 6.901237 2.931387
O 2.928054 6.717237 2.931387
H 3.198054 6.901237 2.931387
H 4.622312 6.901237 2.931387
O 4.882312 6.717237 2.931387
H 5.152312 6.901237 2.931387
H 6.576571 6.901237 2.931387
O 6.836571 6.717237 2.931387
H 7.106570 6.901237 2.931387
H 8.530828 6.901237 2.931387
O 8.790829 6.717237 2.931387
H 9.060828 6.901237 2.931387
H 10.485086 6.901237 2.931387
O 10.745087 6.717237 2.931387
H 11.015086 6.901237 2.931387
H 12.439345 6.901237 2.931387
O 12.699346 6.717237 2.931387
H 12.969345 6.901237 2.931387
H 0.713796 8.855495 2.931387
O 0.973796 8.671495 2.931387
H 1.243796 8.855495 2.931387
H 2.668054 8.855495 2.931387
O 2.928054 8.671495 2.931387
H 3.198054 8.855495 2.931387
H 4.622312 8.855495 2.931387
O 4.882312 8.671495 2.931387
H 5.152312 8.855495 2.931387
H 6.576571 8.855495 2.931387
O 6.836571 8.671495 2.931387
H 7.106570 8.855495 2.931387
H 8.530828 8.855495 2.931387
O 8.790829 8.671495 2.931387
H 9.060828 8.855495 2.931387
H 10.485086 8.855495 2.931387
O 10.745087 8.671495 2.931387
H 11.015086 8.855495 2.931387
H 12.439345 8.855495 2.931387
O 12.699346 8.671495 2.931387
H 12.969345 8.855495 2.931387
H 0.713796 10.809753 2.931387
O 0.973796 10.625753 2.931387
H 1.243796 10.809753 2.931387
H 2.668054 10.809753 2.931387
O 2.928054 10.625753 2.931387
H 3.198054 10.809753 2.931387
H 4.622312 10.809753 2.931387
O 4.882312 10.625753 2.931387
H 5.152312 10.809753 2.931387
H 6.576571 10.809753 2.931387
O 6.836571 10.625753 2.931387
H 7.106570 10.809753 2.931387
H 8.530828 10.809753 2.931387
O 8.790829 10.625753 2.931387
H 9.060828 10.809753 2.931387
H 10.485086 10.809753 2.931387
O 10.745087 10.625753 2.931387
H 11.015086 10.809753 2.931387
H 12.439345 10.809753 2.931387
O 12.699346 10.625753 2.931387
H 12.969345 10.809753 2.931387
H 0.713796 12.764012 2.931387
O 0.973796 12.580012 2.931387
H 1.243796 12.764012 2.931387
H 2.668054 12.764012 2.931387
O 2.928054 12.580012 2.931387
H 3.198054 12.764012 2.931387
H 4.622312 12.764012 2.931387
O 4.882312 12.580012 2.931387
H 5.152312 12.764012 2.931387
H 6.576571 12.764012 2.931387
O 6.836571 12.580012 2.931387
H 7.106570 12.764012 2.931387
H 8.530828 12.764012 2.931387
O 8.790829 12.580012 2.931387
H 9.060828 12.764012 2.931387
H 10.485086 12.764012 2.931387
O 10.745087 12.580012 2.931387
H 11.015086 12.764012 2.931387
H 12.439345 12.764012 2.931387
O 12.699346 12.580012 2.931387
H 12.969345 12.764012 2.931387
H 0.713796 1.038462 4.885645
O 0.973796 0.854462 4.885645
H 1.243796 1.038462 4.885645
H 2.668054 1.038462 4.885645
O 2.928054 0.854462 4.885645
H 3.198054 1.038462 4.885645
H 4.622312 1.038462 4.885645
O 4.882312 0.854462 4.885645
H 5.152312 1.038462 4.885645
H 6.576571 1.038462 4.885645
O 6.836571 0.854462 4.885645
H 7.106570 1.038462 4.885645
H 8.530828 1.038462 4.885645
O 8.790829 0.854462 4.885645
H 9.060828 1.038462 4.885645
H 10.485086 1.038462 4.885645
O 10.745087 0.854462 4.885645
H 11.015086 1.038462 4.885645
H 12.439345 1.038462 4.885645
O 12.699346 0.854462 4.885645
H 12.969345 1.038462 4.885645
H 0.713796 2.992721 4.885645
O 0.973796 2.808721 4.885645
H 1.243796 2.992721 4.885645
H 2.668054 2.992721 4.885645
O 2.928054 2.808721 4.885645
H 3.198054 2.992721 4.885645
H 4.622312 2.992721 4.885645
O 4.882312 2.808721 4.885645
H 5.152312 2.992721 4.885645
H 6.576571 2.992721 4.885645
O 6.836571 2.808721 4.885645
H 7.106570 2.992721 4.885645
H 8.530828 2.992721 4.885645
O 8.790829 2.808721 4.885645
H 9.060828 2.992721 4.885645
H 10.485086 2.992721 4.885645
O 10.745087 2.808721 4.885645
H 11.015086 2.992721 4.885645
H 12.439345 2.992721 4.885645
O 12.699346 2.808721 4.885645
H 12.969345 2.992721 4.885645
H 0.713796 4.946979 4.885645
O 0.973796 4.762979 4.885645
H 1.243796 4.946979 4.885645
H 2.668054 4.946979 4.885645
O 2.928054 4.762979 4.885645
H 3.198054 4.946979 4.885645
H 4.622312 4.946979 4.885645
O 4.882312 4.762979 4.885645
H 5.152312 4.946979 4.885645
H 6.576571 4.946979 4.885645
O 6.836571 4.762979 4.885645
H 7.106570 4.946979 4.885645
H 8.530828 4.946979 4.885645
O 8.790829 4.762979 4.885645
H 9.060828 4.946979 4.885645
H 10.485086 4.946979 4.885645
O 10.745087 4.762979 4.885645
H 11.015086 4.946979 4.885645
H 12.439345 4.946979 4.885645
O 12.699346 4.762979 4.885645
H 12.969345 4.946979 4.885645
H 0.713796 6.901237 4.885645
O 0.973796 6.717237 4.885645
H 1.243796 6.901237 4.885645
H 2.668054 6.901237 4.885645
O 2.928054 6.717237 4.885645
H 3.198054 6.901237 4.885645
H 4.622312 6.901237 4.885645
O 4.882312 6.717237 4.885645
H 5.152312 6.901237 4.885645
H 6.576571 6.901237 4.885645
O 6.836571 6.717237 4.885645
H 7.106570 6.901237 4.885645
H 8.530828 6.901237 4.885645
O 8.790829 6.717237 4.885645
H 9.060828 6.901237 4.885645
H 10.485086 6.901237 4.885645
O 10.745087 6.717237 4.885645
H 11.015086 6.901237 4.885645
H 12.439345 6.901237 4.885645
O 12.699346 6.717237 4.885645
H 12.969345 6.901237 4.885645
H 0.713796 8.855495 4.885645
O 0.973796 8.671495 4.885645
H 1.243796 8.855495 4.885645
H 2.668054 8.855495 4.885645
O 2.928054 8.671495 4.885645
H 3.198054 8.855495 4.885645
H 4.622312 8.855495 4.885645
O 4.882312 8.671495 4.885645
H 5.152312 8.855495 4.885645
H 6.576571 8.855495 4.885645
O 6.836571 8.671495 4.885645
H 7.106570 8.855495 4.885645
H 8.530828 8.855495 4.885645
O 8.790829 8.671495 4.885645
H 9.060828 8.855495 4.885645
H 10.485086 8.855495 4.885645
O 10.745087 8.671495 4.885645
H 11.015086 8.855495 4.885645
H 12.439345 8.855495 4.885645
O 12.699346 8.671495 4.885645
H 12.969345 8.855495 4.885645
H 0.713796 10.809753 4.885645
O 0.973796 10.625753 4.885645
H 1.243796 10.809753 4.885645
H 2.668054 10.809753 4.885645
O 2.928054 10.625753 4.885645
H 3.198054 10.809753 4.885645
H 4.622312 10.809753 4.885645
O 4.882312 10.625753 4.885645
H 5.152312 10.809753 4.885645
H 6.576571 10.809753 4.885645
O 6.836571 10.625753 4.885645
H 7.106570 10.809753 4.885645
H 8.530828 10.809753 4.885645
O 8.790829 10.625753 4.885645
H 9.060828 10.809753 4.885645
H 10.485086 10.809753 4.885645
O 10.745087 10.625753 4.885645
H 11.015086 10.809753 4.885645
H 12.439345 10.809753 4.885645
O 12.699346 10.625753 4.885645
H 12.969345 10.809753 4.885645
H 0.713796 12.764012 4.885645
O 0.973796 12.580012 4.885645
H 1.243796 12.764012 4.885645
H 2.668054 12.764012 4.885645
O 2.928054 12.580012 4.885645
H 3.198054 12.764012 4.885645
H 4.622312 12.764012 4.885645
O 4.882312 12.580012 4.885645
H 5.152312 12.764012 4.885645
H 6.576571 12.764012 4.885645
O 6.836571 12.580012 4.885645
H 7.106570 12.764012 4.885645
H 8.530828 12.764012 4.885645
O 8.790829 12.580012 4.885645
H 9.060828 12.764012 4.885645
H 10.485086 12.764012 4.885645
O 10.745087 12.580012 4.885645
H 11.015086 12.764012 4.885645
H 12.439345 12.764012 4.885645
O 12.699346 12.580012 4.885645
H 12.969345 12.764012 4.885645
H 0.713796 1.038462 6.839904
O 0.973796 0.854462 6.839904
H 1.243796 1.038462 6.839904
H 2.668054 1.038462 6.839904
O 2.928054 0.854462 6.839904
H 3.198054 1.038462 6.839904
H 4.622312 1.038462 6.839904
O 4.882312 0.854462 6.839904
H 5.152312 1.038462 6.839904
H 6.576571 1.038462 6.839904
O 6.836571 0.854462 6.839904
H 7.106570 1.038462 6.839904
H 8.530828 1.038462 6.839904
O 8.790829 0.854462 6.839904
H 9.060828 1.038462 6.839904
H 10.485086 1.038462 6.839904
O 10.745087 0.854462 6.839904
H 11.015086 1.038462 6.839904
H 12.439345 1.038462 6.839904
O 12.699346 0.854462 6.839904
H 12.969345 1.038462 6.839904
H 0.713796 2.992721 6.839904
O 0.973796 2.808721 6.839904
H 1.243796 2.992721 6.839904
H 2.668054 2.992721 6.839904
O 2.928054 2.808721 6.839904
H 3.198054 2.992721 6.839904
H 4.622312 2.992721 6.839904
O 4.882312 2.808721 6.839904
H 5.152312 2.992721 6.839904
H 6.576571 2.992721 6.839904
O 6.836571 2.808721 6.839904
H 7.106570 2.992721 6.839904
H 8.530828 2.992721 6.839904
O 8.790829 2.808721 6.839904
H 9.060828 2.992721 6.839904
H 10.485086 2.992721 6.839904
O 10.745087 2.808721 6.839904
H 11.015086 2.992721 6.839904
H 12.439345 2.992721 6.839904
O 12.699346 2.808721 6.839904
H 12.969345 2.992721 6.839904
H 0.713796 4.946979 6.839904
O 0.973796 4.762979 6.839904
H 1.243796 4.946979 6.839904
H 2.668054 4.946979 6.839904
O 2.928054 4.762979 6.839904
H 3.198054 4.946979 6.839904
H 4.622312 4.946979 6.839904
O 4.882312 4.762979 6.839904
H 5.152312 4.946979 6.839904
H 6.576571 4.946979 6.839904
O 6.836571 4.762979 6.839904
H 7.106570 4.946979 6.839904
H 8.530828 4.946979 6.839904
O 8.790829 4.762979 6.839904
H 9.060828 4.946979 6.839904
H 10.485086 4.946979 6.839904
O 10.745087 4.762979 6.839904
H 11.015086 4.946979 6.839904
H 12.439345 4.946979 6.839904
O 12.699346 4.762979 6.839904
H 12.969345 4.946979 6.839904
H 0.713796 6.901237 6.839904
O 0.973796 6.717237 6.839904
H 1.243796 6.901237 6.839904
H 2.668054 6.901237 6.839904
O 2.928054 6.717237 6.839904
H 3.198054 6.901237 6.839904
H 4.622312 6.901237 6.839904
O 4.882312 6.717237 6.839904
H 5.152312 6.901237 6.839904
H 6.576571 6.901237 6.839904
O 6.836571 6.717237 6.839904
H 7.106570 6.901237 6.839904
H 8.530828 6.901237 6.839904
O 8.790829 6.717237 6.839904
H 9.060828 6.901237 6.839904
H 10.485086 6.901237 6.839904
O 10.745087 6.717237 6.839904
H 11.015086 6.901237 6.839904
H 12.439345 6.901237 6.839904
O 12.699346 6.717237 6.839904
H 12.969345 6.901237 6.839904
H 0.713796 8.855495 6.839904
O 0.973796 8.671495 6.839904
H 1.243796 8.855495 6.839904
H 2.668054 8.855495 6.839904
O 2.928054 8.671495 6.839904
H 3.198054 8.855495 6.839904
H 4.622312 8.855495 6.839904
O 4.882312 8.671495 6.839904
H 5.152312 8.855495 6.839904
H 6.576571 8.855495 6.839904
O 6.836571 8.671495 6.839904
H 7.106570 8.855495 6.839904
H 8.530828 8.855495 6.839904
O 8.790829 8.671495 6.839904
H 9.060828 8.855495 6.839904
H 10.485086 8.855495 6.839904
O 10.745087 8.671495 6.839904
H 11.015086 8.855495 6.839904
H 12.439345 8.855495 6.839904
O 12.699346 8.671495 6.839904
H 12.969345 8.855495 6.839904
H 0.713796 10.809753 6.839904
O 0.973796 10.625753 6.839904
H 1.243796 10.809753 6.839904
H 2.668054 10.809753 6.839904
O 2.928054 10.625753 6.839904
H 3.198054 10.809753 6.839904
H 4.622312 10.809753 6.839904
O 4.882312 10.625753 6.839904
H 5.152312 10.809753 6.839904
H 6.576571 10.809753 6.839904
O 6.836571 10.625753 6.839904
H 7.106570 10.809753 6.839904
H 8.530828 10.809753 6.839904
O 8.790829 10.625753 6.839904
H 9.060828 10.809753 6.839904
H 10.485086 10.809753 6.839904
O 10.745087 10.625753 6.839904
H 11.015086 10.809753 6.839904
H 12.439345 10.809753 6.839904
O 12.699346 10.625753 6.839904
H 12.969345 10.809753 6.839904
H 0.713796 12.764012 6.839904
O 0.973796 12.580012 6.839904
H 1.243796 12.764012 6.839904
H 2.668054 12.764012 6.839904
O 2.928054 12.580012 6.839904
H 3.198054 12.764012 6.839904
H 4.622312 12.764012 6.839904
O 4.882312 12.580012 6.839904
H 5.152312 12.764012 6.839904
H 6.576571 12.764012 6.839904
O 6.836571 12.580012 6.839904
H 7.106570 12.764012 6.839904
H 8.530828 12.764012 6.839904
O 8.790829 12.580012 6.839904
H 9.060828 12.764012 6.839904
H 10.485086 12.764012 6.839904
O 10.745087 12.580012 6.839904
H 11.015086 12.764012 6.839904
H 12.439345 12.764012 6.839904
O 12.699346 12.580012 6.839904
H 12.969345 12.764012 6.839904
H 0.713796 1.038462 8.794162
O 0.973796 0.854462 8.794162
H 1.243796 1.038462 8.794162
H 2.668054 1.038462 8.794162
O 2.928054 0.854462 8.794162
H 3.198054 1.038462 8.794162
H 4.622312 1.038462 8.794162
O 4.882312 0.854462 8.794162
H 5.152312 1.038462 8.794162
H 6.576571 1.038462 8.794162
O 6.836571 0.854462 8.794162
H 7.106570 1.038462 8.794162
H 8.530828 1.038462 8.794162
O 8.790829 0.854462 8.794162
H 9.060828 1.038462 8.794162
H 10.485086 1.038462 8.794162
O 10.745087 0.854462 8.794162
H 11.015086 1.038462 8.794162
H 12.439345 1.038462 8.794162
O 12.699346 0.854462 8.794162
H 12.969345 1.038462 8.794162
H 0.713796 2.992721 8.794162
O 0.973796 2.808721 8.794162
H 1.243796 2.992721 8.794162
H 2.668054 2.992721 8.794162
O 2.928054 2.808721 8.794162
H 3.198054 2.992721 8.794162
H 4.622312 2.992721 8.794162
O 4.882312 2.808721 8.794162
H 5.152312 2.992721 8.794162
H 6.576571 2.992721 8.794162
O 6.836571 2.808721 8.794162
H 7.106570 2.992721 8.794162
H 8.530828 2.992721 8.794162
O 8.790829 2.808721 8.794162
H 9.060828 2.992721 8.794162
H 10.485086 2.992721 8.794162
O 10.745087 2.808721 8.794162
H 11.015086 2.992721 8.794162
H 12.439345 2.992721 8.794162
O 12.699346 2.808721 8.794162
H 12.969345 2.992721 8.794162
H 0.713796 4.946979 8.794162
O 0.973796 4.762979 8.794162
H 1.243796 4.946979 8.794162
H 2.668054 4.946979 8.794162
O 2.928054 4.762979 8.794162
H 3.198054 4.946979 8.794162
H 4.622312 4.946979 8.794162
O 4.882312 4.762979 8.794162
H 5.152312 4.946979 8.794162
H 6.576571 4.946979 8.794162
O 6.836571 4.762979 8.794162
H 7.106570 4.946979 8.794162
H 8.530828 4.946979 8.794162
O 8.790829 4.762979 8.794162
H 9.060828 4.946979 8.794162
H 10.485086 4.946979 8.794162
O 10.745087 4.762979 8.794162
H 11.015086 4.946979 8.794162
H 12.439345 4.946979 8.794162
O 12.699346 4.762979 8.794162
H 12.969345 4.946979 8.794162
H 0.713796 6.901237 8.794162
O 0.973796 6.717237 8.794162
H 1.243796 6.901237 8.794162
H 2.668054 6.901237 8.794162
O 2.928054 6.717237 8.794162
H 3.198054 6.901237 8.794162
H 4.622312 6.901237 8.794162
O 4.882312 6.717237 8.794162
H 5.152312 6.901237 8.794162
H 6.576571 6.901237 8.794162
O 6.836571 6.717237 8.794162
H 7.106570 6.901237 8.794162
H 8.530828 6.901237 8.794162
O 8.790829 6.717237 8.794162
H 9.060828 6.901237 8.794162
H 10.485086 6.901237 8.794162
O 10.745087 6.717237 8.794162
H 11.015086 6.901237 8.794162
H 12.439345 6.901237 8.794162
O 12.699346 6.717237 8.794162
H 12.969345 6.901237 8.794162
H 0.713796 8.855495 8.794162
O 0.973796 8.671495 8.794162
H 1.243796 8.855495 8.794162
H 2.668054 8.855495 8.794162
O 2.928054 8.671495 8.794162
H 3.198054 8.855495 8.794162
H 4.622312 8.855495 8.794162
O 4.882312 8.671495 8.794162
H 5.152312 8.855495 8.794162
H 6.576571 8.855495 8.794162
O 6.836571 8.671495 8.794162
H 7.106570 8.855495 8.794162
H 8.530828 8.855495 8.794162
O 8.790829 8.671495 8.794162
H 9.060828 8.855495 8.794162
H 10.485086 8.855495 8.794162
O 10.745087 8.671495 8.794162
H 11.015086 8.855495 8.794162
H 12.439345 8.855495 8.794162
O 12.699346 8.671495 8.794162
H 12.969345 8.855495 8.794162
H 0.713796 10.809753 8.794162
O 0.973796 10.625753 8.794162
H 1.243796 10.809753 8.794162
H 2.668054 10.809753 8.794162
O 2.928054 10.625753 8.794162
H 3.198054 10.809753 8.794162
H 4.622312 10.809753 8.794162
O 4.882312 10.625753 8.794162
H 5.152312 10.809753 8.794162
H 6.576571 10.809753 8.794162
O 6.836571 10.625753 8.794162
H 7.106570 10.809753 8.794162
H 8.530828 10.809753 8.794162
O 8.790829 10.625753 8.794162
H 9.060828 10.809753 8.794162
H 10.485086 10.809753 8.794162
O 10.745087 10.625753 8.794162
H 11.015086 10.809753 8.794162
H 12.439345 10.809753 8.794162
O 12.699346 10.625753 8.794162
H 12.969345 10.809753 8.794162
H 0.713796 12.764012 8.794162
O 0.973796 12.580012 8.794162
H 1.243796 12.764012 8.794162
H 2.668054 12.764012 8.794162
O 2.928054 12.580012 8.794162
H 3.198054 12.764012 8.794162
H 4.622312 12.764012 8.794162
O 4.882312 12.580012 8.794162
H 5.152312 12.764012 8.794162
H 6.576571 12.764012 8.794162
O 6.836571 12.580012 8.794162
H 7.106570 12.764012 8.794162
H 8.530828 12.764012 8.794162
O 8.790829 12.580012 8.794162
H 9.060828 12.764012 8.794162
H 10.485086 12.764012 8.794162
O 10.745087 12.580012 8.794162
H 11.015086 12.764012 8.794162
H 12.439345 12.764012 8.794162
O 12.699346 12.580012 8.794162
H 12.969345 12.764012 8.794162
H 0.713796 1.038462 10.748420
O 0.973796 0.854462 10.748420
H 1.243796 1.038462 10.748420
H 2.668054 1.038462 10.748420
O 2.928054 0.854462 10.748420
H 3.198054 1.038462 10.748420
H 4.622312 1.038462 10.748420
O 4.882312 0.854462 10.748420
H 5.152312 1.038462 10.748420
H 6.576571 1.038462 10.748420
O 6.836571 0.854462 10.748420
H 7.106570 1.038462 10.748420
H 8.530828 1.038462 10.748420
O 8.790829 0.854462 10.748420
H 9.060828 1.038462 10.748420
H 10.485086 1.038462 10.748420
O 10.745087 0.854462 10.748420
H 11.015086 1.038462 10.748420
H 12.439345 1.038462 10.748420
O 12.699346 0.854462 10.748420
H 12.969345 1.038462 10.748420
H 0.713796 2.992721 10.748420
O 0.973796 2.808721 10.748420
H 1.243796 2.992721 10.748420
H 2.668054 2.992721 10.748420
O 2.928054 2.808721 10.748420
H 3.198054 2.992721 10.748420
H 4.622312 2.992721 10.748420
O 4.882312 2.808721 10.748420
H 5.152312 2.992721 10.748420
H 6.576571 2.992721 10.748420
O 6.836571 2.808721 10.748420
H 7.106570 2.992721 10.748420
